test/test_data/2area-5-bus-system/export_1_1/export_1_1.raw
0, 100.0, 33, 0, 1, 60.0    / PSS/E 33.3 RAW via PowerFlows.jl, 2026-04-01T10:20:41.088
export_1_1
PSS/E 33.3 RAW via PowerFlows.jl, 2026-04-01T10:20:41.088
1, 'nodeA', 230.0, 2, , , , 1.0, 3.554782316828282, 1.05, 0.9, , 
2, 'nodeB', 230.0, 1, , , , 1.0, -1.720867928669056, 1.05, 0.9, , 
3, 'nodeC', 230.0, 2, , , , 1.0, -2.2769093422164963, 1.05, 0.9, , 
4, 'nodeD', 230.0, 3, , , , 1.0, 0.0, 1.05, 0.9, , 
5, 'nodeE', 230.0, 2, , , , 1.0, 4.734673863733324, 1.05, 0.9, , 
6, 'nodeA2', 230.0, 2, , , , 1.0, 3.554782316828282, 1.05, 0.9, , 
7, 'nodeB2', 230.0, 1, , , , 1.0, -1.720867928669056, 1.05, 0.9, , 
8, 'nodeC2', 230.0, 2, , , , 1.0, -2.2769093422164963, 1.05, 0.9, , 
9, 'nodeD2', 230.0, 3, , , , 1.0, 0.0, 1.05, 0.9, , 
10, 'nodeE2', 230.0, 2, , , , 1.0, 4.734673863733324, 1.05, 0.9, , 
0 / End of Bus Data, Begin Load Data
2, '1', 1, , , 237.81899339999998, 98.61, , , , , , 0, 0
7, '1', 1, , , 237.81899339999998, 98.61, , , , , , 0, 0
3, '1', 1, , , 249.3281346, 98.61, , , , , , 0, 0
8, '1', 1, , , 249.3281346, 98.61, , , , , , 0, 0
4, '1', 1, , , 348.5189368, 131.47, , , , , , 0, 0
9, '1', 1, , , 348.5189368, 131.47, , , , , , 0, 0
0 / End of Load Data, Begin Fixed Shunt Data
0 / End of Fixed Shunt Data, Begin Generator Data
1, '1', 40.0, 1.0, 30.0, -30.0, 1.0, , 100.0, , , , , , 1, , 40.0, 0.0, , , , , , , , , , 
1, '2', 170.0, 20.0, 127.49999999999999, -127.49999999999999, 1.0, , 100.0, , , , , , 1, , 170.0, 0.0, , , , , , , , , , 
3, '1', 25.666064800000044, 100.0, 390.0, -390.0, 1.0, , 100.0, , , , , , 1, , 520.0, 0.0, , , , , , , , , , 
3, '2', 0.0, 0.0, 200.0, -200.0, 1.0, , 100.0, , , , , , 1, , 200.0, -200.0, , , , , , , , , , 
4, '1', 0.0, 40.0, 150.0, -150.0, 1.0, , 100.0, , , , , , 1, , 200.0, 0.0, , , , , , , , , , 
5, '1', 600.0, 150.0, 450.0, -450.0, 1.0, , 100.0, , , , , , 1, , 600.0, 0.0, , , , , , , , , , 
6, '1', 40.0, 1.0, 30.0, -30.0, 1.0, , 100.0, , , , , , 1, , 40.0, 0.0, , , , , , , , , , 
6, '2', 170.0, 20.0, 127.49999999999999, -127.49999999999999, 1.0, , 100.0, , , , , , 1, , 170.0, 0.0, , , , , , , , , , 
8, '1', 25.666064800000044, 100.0, 390.0, -390.0, 1.0, , 100.0, , , , , , 1, , 520.0, 0.0, , , , , , , , , , 
8, '2', -0.0, 0.0, 200.0, -200.0, 1.0, , 100.0, , , , , , 1, , 200.0, -200.0, , , , , , , , , , 
9, '1', 0.0, 40.0, 150.0, -150.0, 1.0, , 100.0, , , , , , 1, , 200.0, 0.0, , , , , , , , , , 
10, '1', 600.0, 150.0, 450.0, -450.0, 1.0, , 100.0, , , , , , 1, , 600.0, 0.0, , , , , , , , , , 
0 / End of Generator Data, Begin Non-Transformer Branch Data
1, 2, 'EB', 0.00281, 0.0281, 0.00712, 329.0, 0.0, 0.0, , , , , 1, , , , , , , , , , 
1, 4, 'ED', 0.00304, 0.0304, 0.00658, 329.0, 0.0, 0.0, , , , , 1, , , , , , , , , , 
1, 5, 'EE', 0.00064, 0.0064, 0.03126, 796.0, 0.0, 0.0, , , , , 1, , , , , , , , , , 
2, 3, 'EC', 0.00108, 0.0108, 0.01852, 796.0, 0.0, 0.0, , , , , 1, , , , , , , , , , 
3, 4, 'ED', 0.00297, 0.0297, 0.00674, 796.0, 0.0, 0.0, , , , , 1, , , , , , , , , , 
4, 5, 'EE', 0.00297, 0.0297, 0.00674, 329.0, 0.0, 0.0, , , , , 1, , , , , , , , , , 
6, 7, 'B2', 0.00281, 0.0281, 0.00712, 329.0, 0.0, 0.0, , , , , 1, , , , , , , , , , 
6, 9, 'D2', 0.00304, 0.0304, 0.00658, 329.0, 0.0, 0.0, , , , , 1, , , , , , , , , , 
6, 10, 'E2', 0.00064, 0.0064, 0.03126, 796.0, 0.0, 0.0, , , , , 1, , , , , , , , , , 
7, 8, 'C2', 0.00108, 0.0108, 0.01852, 796.0, 0.0, 0.0, , , , , 1, , , , , , , , , , 
8, 9, 'D2', 0.00297, 0.0297, 0.00674, 796.0, 0.0, 0.0, , , , , 1, , , , , , , , , , 
9, 10, 'E2', 0.00297, 0.0297, 0.00674, 329.0, 0.0, 0.0, , , , , 1, , , , , , , , , , 
0 / End of Non-Transformer Branch Data, Begin Transformer Data
0 / End of Transformer Data, Begin Area Interchange Data
0 / End of Area Interchange Data, Begin Two-Terminal DC Transmission Line Data
0 / End of Two-Terminal DC Transmission Line Data, Begin Voltage Source Converter (VSC) DC Transmission Line Data
0 / End of Voltage Source Converter (VSC) DC Transmission Line Data, Begin Transformer Impedance Correction Tables
0 / End of Transformer Impedance Correction Tables, Begin Multi-Terminal DC Transmission Line Data
0 / End of Multi-Terminal DC Transmission Line Data, Begin Multi-Section Line Grouping Data
0 / End of Multi-Section Line Grouping Data, Begin Zone Data
0 / End of Zone Data, Begin Interarea Transfer Data
0 / End of Interarea Transfer Data, Begin Owner Data
0 / End of Owner Data, Begin FACTS Device Data
0 / End of FACTS Device Data, Begin Switched Shunt Data
0 / End of Switched Shunt Data, Begin GNE Device Data
0 / End of GNE Device Data, Begin Induction Machine Data
0 / End of Induction Machine Data
Q
